LTspice 26.0.1 for Windows
Circuit: C:\github\Sally-2\LTspice\serout.net
Start Time: Thu Dec 25 19:38:12 2025
solver = Normal
Maximum thread count: 12
tnom = 27
temp = 27
method = trap
Direct Newton iteration succeeded in finding operating point.
Total elapsed time: 0.081 seconds.

Files loaded:
C:\github\Sally-2\LTspice\serout.net
C:\Users\rolan\AppData\Local\LTspice\lib\cmp\standard.bjt

